*Heading
** Job name: PlasticLug_Hard_00025 Model name: Model-1
** Generated by: Abaqus/CAE 2022
*Preprint, echo=NO, model=NO, history=NO, contact=NO
**
** PARTS
**
*Part, name=Lug
*Node
      1, 0.0549999997, 0.0149999997, 0.0199999996
      2, 0.0549999997, 0.0149999997,           0.
      3, 0.0549999997, 0.0399999991,           0.
      4, 0.0549999997, 0.0399999991, 0.0199999996
      5, -0.0199999996, 0.0149999997,           0.
      6, -0.0199999996, 0.0399999991,           0.
      7, -0.0199999996, 0.0399999991, 0.0199999996
      8, -0.0199999996, 0.0149999997, 0.0199999996
      9, 0.0649999976, 0.0149999997,           0.
     10, 0.0649999976, 0.0149999997, 0.0199999996
     11, 0.0799999982, 0.0399999991,           0.
     12, 0.0799999982, 0.0299999993,           0.
     13, 0.0799999982, 0.0399999991, 0.0199999996
     14, 0.0799999982, 0.0299999993, 0.0199999996
     15, 0.0549999997, -0.00999999978,           0.
     16, 0.0549999997, -0.00999999978, 0.0199999996
     17, -0.0199999996, -0.00999999978, 0.0199999996
     18, -0.0199999996, -0.00999999978,           0.
     19, 0.0949999988, 0.0149999997,           0.
     20, 0.0949999988, 0.0149999997, 0.0199999996
** ... 29832 like lines cut
*Element, type=C3D20R
   1,   144,  1120,  3331,   656,     1,    27,   544,    56,  7870,  7869,  7868,  7867,  7871,  7872,  7873,
       7874,  7876,  7875,  7877,  7878
   2,  1120,  1121,  3332,  3331,    27,    28,   545,   544,  7881,  7880,  7879,  7869,  7882,  7883,  7884,
       7872,  7875,  7885,  7886,  7877
   3,  1121,  1122,  3333,  3332,    28,    29,   546,   545,  7889,  7888,  7887,  7880,  7890,  7891,  7892,
       7883,  7885,  7893,  7894,  7886
   4,  1122,  1123,  3334,  3333,    29,    30,   547,   546,  7897,  7896,  7895,  7888,  7898,  7899,  7900,
       7891,  7893,  7901,  7902,  7894
   5,  1123,  1124,  3335,  3334,    30,    31,   548,   547,  7905,  7904,  7903,  7896,  7906,  7907,  7908,
       7899,  7901,  7909,  7910,  7902
   6,  1124,  1125,  3336,  3335,    31,    32,   549,   548,  7913,  7912,  7911,  7904,  7914,  7915,  7916,
       7907,  7909,  7917,  7918,  7910
   7,  1125,  1126,  3337,  3336,    32,    33,   550,   549,  7921,  7920,  7919,  7912,  7922,  7923,  7924,
       7915,  7917,  7925,  7926,  7918
   8,  1126,   174,   888,  3337,    33,     2,    34,   550,  7929,  7928,  7927,  7920,  7930,  7931,  7932,
       7923,  7925,  7933,  7934,  7926
   9,   656,  3331,  3338,   657,    56,   544,   551,    55,  7868,  7937,  7936,  7935,  7873,  7938,  7939,
       7940,  7878,  7877,  7941,  7942
  10,  3331,  3332,  3339,  3338,   544,   545,   552,   551,  7879,  7944,  7943,  7937,  7884,  7945,  7946,
       7938,  7877,  7886,  7947,  7941
** ... 12652 like lines cut
*Nset, nset=_PickedSet2, internal, generate
     1,  29852,      1
*Elset, elset=_PickedSet2, internal, generate
    1,  6336,     1
** Section: LugSection
*Solid Section, elset=_PickedSet2, material=Steel
,
*End Part
**  
**
** ASSEMBLY
**
*Assembly, name=Assembly
**  
*Instance, name=Lug-1, part=Lug
*End Instance
**  
*Nset, nset=BuiltIn, instance=Lug-1
     5,     6,     7,     8,    17,    18,    57,    58,    59,    60,    61,    62,    63,    64,    65,    66
    67,    68,    69,    70,    71,    72,    73,    74,    75,    76,    77,    78,    79,    80,    81,    82
    83,    84,    85,    86,   310,   311,   312,   313,   314,   315,   316,   346,   347,   348,   349,   350
   351,   352,   353,   362,   363,   364,   365,   366,   367,   368,   369,   600,   601,   602,   603,   604
   605,   606,   607,   608,   609,   610,   611,   612,   613,   614,   615,   616,   617,   618,   619,   620
   621,   622,   623,   624,   625,   626,   627,   628,   629,   630,   631,   632,   633,   634,   635,   636
   637,   638,   639,   640,   641,   642,   643,   644,   645,   646,   647,   648,   649,   650,   651,   652
   653,   654,   655,  2520,  2521,  2522,  2523,  2524,  2525,  2526,  2527,  2528,  2529,  2530,  2531,  2532
  2533,  2534,  2535,  2536,  2537,  2538,  2539,  2540,  2541,  2542,  2543,  2544,  2545,  2546,  2547,  2548
  2549,  2550,  2551,  2552,  2553,  2554,  2555,  2556,  2557,  2558,  2559,  2560,  2561,  2562,  2563,  2564
  2565,  2566,  2567,  2568,  2569,  2570,  2571,  2572,  2573,  2574,  2575, 15307, 15308, 15309, 15310, 15315
 15316, 15317, 15320, 15321, 15322, 15325, 15326, 15327, 15330, 15331, 15332, 15335, 15336, 15337, 15340, 15341
 15342, 15345, 15346, 15347, 15350, 15351, 15352, 15355, 15356, 15358, 15359, 15361, 15362, 15364, 15365, 15367
 15368, 15370, 15371, 15373, 15374, 15376, 15377, 15378, 15381, 15382, 15384, 15385, 15387, 15388, 15390, 15391
 15393, 15394, 15396, 15397, 15399, 15400, 15402, 15403, 15404, 15407, 15408, 15410, 15411, 15413, 15414, 15416
 15417, 15419, 15420, 15422, 15423, 15425, 15426, 15428, 15429, 15430, 15433, 15434, 15436, 15437, 15439, 15440
 15442, 15443, 15445, 15446, 15448, 15449, 15451, 15452, 15454, 15455, 15456, 15459, 15460, 15462, 15463, 15465
 15466, 15468, 15469, 15471, 15472, 15474, 15475, 15477, 15478, 15480, 15481, 15482, 15485, 15486, 15488, 15489
 15491, 15492, 15494, 15495, 15497, 15498, 15500, 15501, 15503, 15504, 15506, 15507, 15508, 15511, 15512, 15514
 15515, 15517, 15518, 15520, 15521, 15523, 15524, 15526, 15527, 15529, 15530, 15532, 15533, 15534, 15537, 15538
** ... 11 like lines cut
*Elset, elset=BuiltIn, instance=Lug-1
 2089, 2090, 2091, 2092, 2093, 2094, 2095, 2096, 2097, 2098, 2099, 2100, 2101, 2102, 2103, 2104
 2105, 2106, 2107, 2108, 2109, 2110, 2111, 2112, 2113, 2114, 2115, 2116, 2117, 2118, 2119, 2120
 2121, 2122, 2123, 2124, 2125, 2126, 2127, 2128, 2129, 2130, 2131, 2132, 2133, 2134, 2135, 2136
 2137, 2138, 2139, 2140, 2141, 2142, 2143, 2144, 2145, 2146, 2147, 2148, 2149, 2150, 2151, 2152
 2153, 2154, 2155, 2156, 2157, 2158, 2159, 2160, 2921, 2922, 2923, 2924, 2925, 2926, 2927, 2928
 3161, 3162, 3163, 3164, 3165, 3166, 3167, 3168, 3401, 3402, 3403, 3404, 3405, 3406, 3407, 3408
 3641, 3642, 3643, 3644, 3645, 3646, 3647, 3648, 3881, 3882, 3883, 3884, 3885, 3886, 3887, 3888
 4121, 4122, 4123, 4124, 4125, 4126, 4127, 4128, 4361, 4362, 4363, 4364, 4365, 4366, 4367, 4368
 4601, 4602, 4603, 4604, 4605, 4606, 4607, 4608, 4841, 4842, 4843, 4844, 4845, 4846, 4847, 4848
*Nset, nset=HoleBot, instance=Lug-1
    23,    24,   444,   445,   446,   447,   448,   449,   450, 26385, 26396, 26404, 26412, 26420, 26428, 26436
 26444,
*Elset, elset=HoleBot, instance=Lug-1
 5329, 5330, 5331, 5332, 5333, 5334, 5335, 5336, 6301, 6306, 6311, 6316, 6321, 6326, 6331, 6336
*Nset, nset=_PickedSet4, internal, instance=Lug-1
     5,     6,     7,     8,    17,    18,    57,    58,    59,    60,    61,    62,    63,    64,    65,    66
    67,    68,    69,    70,    71,    72,    73,    74,    75,    76,    77,    78,    79,    80,    81,    82
    83,    84,    85,    86,   310,   311,   312,   313,   314,   315,   316,   346,   347,   348,   349,   350
   351,   352,   353,   362,   363,   364,   365,   366,   367,   368,   369,   600,   601,   602,   603,   604
   605,   606,   607,   608,   609,   610,   611,   612,   613,   614,   615,   616,   617,   618,   619,   620
   621,   622,   623,   624,   625,   626,   627,   628,   629,   630,   631,   632,   633,   634,   635,   636
   637,   638,   639,   640,   641,   642,   643,   644,   645,   646,   647,   648,   649,   650,   651,   652
   653,   654,   655,  2520,  2521,  2522,  2523,  2524,  2525,  2526,  2527,  2528,  2529,  2530,  2531,  2532
  2533,  2534,  2535,  2536,  2537,  2538,  2539,  2540,  2541,  2542,  2543,  2544,  2545,  2546,  2547,  2548
  2549,  2550,  2551,  2552,  2553,  2554,  2555,  2556,  2557,  2558,  2559,  2560,  2561,  2562,  2563,  2564
  2565,  2566,  2567,  2568,  2569,  2570,  2571,  2572,  2573,  2574,  2575, 15307, 15308, 15309, 15310, 15315
 15316, 15317, 15320, 15321, 15322, 15325, 15326, 15327, 15330, 15331, 15332, 15335, 15336, 15337, 15340, 15341
 15342, 15345, 15346, 15347, 15350, 15351, 15352, 15355, 15356, 15358, 15359, 15361, 15362, 15364, 15365, 15367
 15368, 15370, 15371, 15373, 15374, 15376, 15377, 15378, 15381, 15382, 15384, 15385, 15387, 15388, 15390, 15391
 15393, 15394, 15396, 15397, 15399, 15400, 15402, 15403, 15404, 15407, 15408, 15410, 15411, 15413, 15414, 15416
 15417, 15419, 15420, 15422, 15423, 15425, 15426, 15428, 15429, 15430, 15433, 15434, 15436, 15437, 15439, 15440
 15442, 15443, 15445, 15446, 15448, 15449, 15451, 15452, 15454, 15455, 15456, 15459, 15460, 15462, 15463, 15465
 15466, 15468, 15469, 15471, 15472, 15474, 15475, 15477, 15478, 15480, 15481, 15482, 15485, 15486, 15488, 15489
 15491, 15492, 15494, 15495, 15497, 15498, 15500, 15501, 15503, 15504, 15506, 15507, 15508, 15511, 15512, 15514
 15515, 15517, 15518, 15520, 15521, 15523, 15524, 15526, 15527, 15529, 15530, 15532, 15533, 15534, 15537, 15538
** ... 11 like lines cut
*Elset, elset=_PickedSet4, internal, instance=Lug-1
 2089, 2090, 2091, 2092, 2093, 2094, 2095, 2096, 2097, 2098, 2099, 2100, 2101, 2102, 2103, 2104
 2105, 2106, 2107, 2108, 2109, 2110, 2111, 2112, 2113, 2114, 2115, 2116, 2117, 2118, 2119, 2120
 2121, 2122, 2123, 2124, 2125, 2126, 2127, 2128, 2129, 2130, 2131, 2132, 2133, 2134, 2135, 2136
 2137, 2138, 2139, 2140, 2141, 2142, 2143, 2144, 2145, 2146, 2147, 2148, 2149, 2150, 2151, 2152
 2153, 2154, 2155, 2156, 2157, 2158, 2159, 2160, 2921, 2922, 2923, 2924, 2925, 2926, 2927, 2928
 3161, 3162, 3163, 3164, 3165, 3166, 3167, 3168, 3401, 3402, 3403, 3404, 3405, 3406, 3407, 3408
 3641, 3642, 3643, 3644, 3645, 3646, 3647, 3648, 3881, 3882, 3883, 3884, 3885, 3886, 3887, 3888
 4121, 4122, 4123, 4124, 4125, 4126, 4127, 4128, 4361, 4362, 4363, 4364, 4365, 4366, 4367, 4368
 4601, 4602, 4603, 4604, 4605, 4606, 4607, 4608, 4841, 4842, 4843, 4844, 4845, 4846, 4847, 4848
*Elset, elset=__PickedSurf5_S3, internal, instance=Lug-1
 5969, 5970, 5971, 5972, 5973, 5974, 5975, 5976, 5977, 5978, 5979, 5980, 5981, 5982, 5983, 5984
 5985, 5986, 5987, 5988, 6297, 6298, 6299, 6300, 6301, 6302, 6303, 6304, 6305, 6306, 6307, 6308
 6309, 6310, 6311, 6312, 6313, 6314, 6315, 6316
*Elset, elset=__PickedSurf5_S4, internal, instance=Lug-1, generate
 5989,  6008,     1
*Elset, elset=__PickedSurf5_S2, internal, instance=Lug-1
 5329, 5330, 5331, 5332, 5333, 5334, 5335, 5336, 5337, 5338, 5339, 5340, 5341, 5342, 5343, 5344
 5345, 5346, 5347, 5348, 5349, 5350, 5351, 5352, 5353, 5354, 5355, 5356, 5357, 5358, 5359, 5360
 5361, 5362, 5363, 5364, 5365, 5366, 5367, 5368, 5369, 5370, 5371, 5372, 5373, 5374, 5375, 5376
 5377, 5378, 5379, 5380, 5381, 5382, 5383, 5384, 5385, 5386, 5387, 5388, 5389, 5390, 5391, 5392
 5393, 5394, 5395, 5396, 5397, 5398, 5399, 5400, 5401, 5402, 5403, 5404, 5405, 5406, 5407, 5408
 5409, 5410, 5411, 5412, 5413, 5414, 5415, 5416, 5417, 5418, 5419, 5420, 5421, 5422, 5423, 5424
 6317, 6318, 6319, 6320, 6321, 6322, 6323, 6324, 6325, 6326, 6327, 6328, 6329, 6330, 6331, 6332
 6333, 6334, 6335, 6336
*Surface, type=ELEMENT, name=_PickedSurf5, internal
__PickedSurf5_S3, S3
__PickedSurf5_S4, S4
__PickedSurf5_S2, S2
*End Assembly
*Amplitude, name=V_E_U_amp
             0., 9.86083951421695e-20,            0.01, 0.00512624209642948,            0.02, 0.0109665747383671,            0.03, 0.0175087514203764
           0.04, 0.0247267649830729,            0.05, 0.0325809339523822,            0.06, 0.0410184811683444,            0.07, 0.0499746107400542
           0.08, 0.0593740636307603,            0.09, 0.0691331045830572,             0.1, 0.0791618651322792,            0.11, 0.0893669408781697
           0.12, 0.099654117908444,            0.13, 0.109931085254086,            0.14, 0.120109979361238,            0.15, 0.130109604375958
           0.16, 0.139857179709831,            0.17, 0.149289484455574,            0.18, 0.15835329661673,            0.19, 0.167005062890366
            0.2, 0.175209780190375,            0.21, 0.182939120777333,            0.22, 0.190168885709777,            0.23, 0.196875922865875
           0.24, 0.203034692332626,            0.25, 0.20861369994073,            0.26, 0.213572045931772,            0.27, 0.217856347623546
           0.28, 0.221398290811949,            0.29, 0.224113043886128,             0.3, 0.225898731747004,            0.31, 0.2266371152542
           0.32, 0.226195558771904,            0.33, 0.224430296996171,            0.34, 0.221190936801149,            0.35, 0.216326054846143
           0.36, 0.20968968166345,            0.37, 0.20114840213562,            0.38, 0.190588754347306,            0.39, 0.177924576657213
            0.4, 0.163103938440704,            0.41, 0.146115294247121,            0.42, 0.126992524013959,            0.43, 0.105818562424777
           0.44, 0.0827273765601638,            0.45, 0.0579041200109273,            0.46, 0.0315833703665247,            0.47, 0.00404544181832453
           0.48, -0.0243891483609606,            0.49, -0.053366895464291,             0.5, -0.0825099616065944,            0.51, -0.111425955013277
           0.52, -0.139718463586624,            0.53, -0.166997930668163,            0.54, -0.192892437810951,            0.55, -0.217057956138893
           0.56, -0.239187645284021,            0.57, -0.259019816770203,            0.58, -0.276344235818445,            0.59, -0.291006509576829
            0.6, -0.302910397384237,            0.61, -0.312017975597737,            0.62, -0.318347690757614,            0.63, -0.321970434980403
           0.64, -0.323003870875382,            0.65, -0.321605314623486,            0.66, -0.317963550395843,            0.67, -0.312289993234657
           0.68, -0.304809638332075,            0.69, -0.295752231235431,             0.7, -0.285344066340958,            0.71, -0.273800772097891
           0.72, -0.261321373995607,            0.73, -0.248083845139484,            0.74, -0.234242264315635,            0.75, -0.219925608574215
           0.76, -0.205238117180661,            0.77, -0.190261081535376,            0.78, -0.175055845827403,            0.79, -0.159667749222886
** ... 5 like lines cut
** 
** MATERIALS
** 
*Material, name=Steel
*Elastic
 2e+11, 0.3
*Plastic
 3.8e+08,   0.
 5.8e+08, 0.35
** ----------------------------------------------------------------
** 
** STEP: LugLoad
** 
*Step, name=LugLoad, nlgeom=NO
Apply uniform pressure to the hole
*Static
0.2, 1., 1e-07, 1.
** 
** BOUNDARY CONDITIONS
** 
** Name: Fix left end Type: Symmetry/Antisymmetry/Encastre
*Boundary
_PickedSet4, ENCASTRE
** 
** LOADS
** 
** Name: Pressure load   Type: Pressure
*Dsload, amplitude=V_E_U_amp
_PickedSurf5, P, 1e+08
** 
** OUTPUT REQUESTS
** 
*Restart, write, frequency=0
** 
** FIELD OUTPUT: F-Output-1
** 
*Output, field
*Node Output
U, 
*Element Output, position=NODES, directions=YES
MISES,PEEQ
*Output, history, frequency=0
*End Step
